! pbe0 def2-TZVP Opt freq
%pal nprocs 4 end

* xyz -1 1
  C           0.86234869960256      0.00012654606504      0.00007835612748
  Cl         -2.21059444351564     -0.00028099516751      0.00068135206834
  H           0.53935160459410      0.94593384114846      0.41970742299744
  H           0.53896946185502     -0.83620343717133      0.60910937981072
  H           0.53979707654408     -0.10920698484626     -1.02898593687181
  F           2.36234860091987     -0.00004197002840      0.00067942586784
*
