! PBE def2-TZVP opt freq pal4

*xyz 2 1
Fe                 0.00000000    0.00000000    0.00000000
 C                  0.00000000    0.00000000    1.93000000
 O                  0.00000000    0.00000000    3.04540000
 C                  0.00000000    0.00000000   -1.93000000
 O                  0.00000000    0.00000000   -3.04540000
 C                  1.93000000    0.00000000    0.00000000
 O                  3.04540000    0.00000000    0.00000000
 C                  0.00000000   -1.93000000    0.00000000
 O                  0.00000000   -3.04540000    0.00000000
 C                 -1.93000000    0.00000000    0.00000000
 O                 -3.04540000    0.00000000    0.00000000
 C                  0.00000000    1.93000000    0.00000000
 O                  0.00000000    3.04540000    0.00000000
*
