! PBE cc-pVTZ  opt freq
* xyz 0 1
  N   0.06712083707186      0.00000019823513      0.00000034335775
  H   -0.31286870990452      0.46903943378413      0.81240013011486
  H   -0.31286887080118      0.46903857565607     -0.81239986357956
  H   -0.31286887080014     -0.93807820767533     -0.00000060989305
*
