!MP2 aug-cc-pvtz tightopt 

*xyz 0 1 
 O                   1.36500749   -0.53544494    0.00000000 
 H                   2.32500749   -0.53544494    0.00000000 
 H                   1.04455290    0.36949089    0.00000000 
 O                  -1.73596849   -3.72793109    2.24077491 
 H                  -1.14897448   -3.06048215    1.87807677 
 H                  -2.06544876   -3.43556599    3.09374935 
 *
